DIGIN10/PSSE/DIGIN10-24-MV1.raw
0, 1000,33,   0,   1,     50.0 /PSS®E 33      Wed Aug 25 16:16:36 2021
PSS®E v33 RAW data export from PSS/O                                            
2021-08-25 DIGIN10-24-MV1                                                       
    11,'ARENDA-420-1', 420.0000,3, 902,9999,9999,1.00000,   0.0000,1.05000,0.95000,1.10000,0.90000
    12,'ARENDA-132-2', 132.0000,1, 902,9999,9999,1.02165,  -0.2998,1.05000,0.95000,1.10000,0.90000
    13,'ARENDA-132-3', 132.0000,1, 902,9999,9999,1.02166,  -0.2992,1.05000,0.95000,1.10000,0.90000
    21,'ENGENE-22-1 ',  22.0000,1, 902,9999,9999,1.02793,  -0.3006,1.05000,0.95000,1.10000,0.90000
    22,'ENGENE-22-2 ',  22.0000,1, 902,9999,9999,1.02793,  -0.3006,1.05000,0.95000,1.10000,0.90000
    23,'ENGENE-22-3 ',  22.0000,1, 902,9999,9999,1.02793,  -0.3006,1.05000,0.95000,1.10000,0.90000
    24,'ENGENE-22-4 ',  22.0000,1, 902,9999,9999,1.02793,  -0.3006,1.05000,0.95000,1.10000,0.90000
    25,'ENGENE-132-5', 132.0000,1, 902,9999,9999,1.02155,  -0.2999,1.05000,0.95000,1.10000,0.90000
    26,'ENGENE-0.2-6',   0.2300,1, 902,9999,9999,1.02699,  -0.3006,1.05000,0.95000,1.10000,0.90000
    27,'ENGENE-0.2-7',   0.2300,1, 902,9999,9999,1.02792,  -0.3023,1.05000,0.95000,1.10000,0.90000
    31,'FROLAN-132-1', 132.0000,1, 902,9999,9999,1.02155,  -0.2998,1.05000,0.95000,1.10000,0.90000
    41,'NEDENE-0.4-1',   0.4000,1, 902,9999,9999,1.02792,  -0.3030,1.05000,0.95000,1.10000,0.90000
    42,'NEDENE-0.4-2',   0.4000,1, 902,9999,9999,1.02792,  -0.3030,1.05000,0.95000,1.10000,0.90000
    43,'NEDENES-22-3',  22.0000,1, 902,9999,9999,1.02793,  -0.3006,1.05000,0.95000,1.10000,0.90000
    44,'NEDENES-22-4',  22.0000,1, 902,9999,9999,1.02793,  -0.3006,1.05000,0.95000,1.10000,0.90000
    51,'T_ENGE-132-1', 132.0000,1, 902,9999,9999,1.02155,  -0.2999,1.05000,0.95000,1.10000,0.90000
    52,'T_ENGE-132-2', 132.0000,1, 902,9999,9999,1.02155,  -0.2999,1.05000,0.95000,1.10000,0.90000
0 / END OF BUS DATA, BEGIN LOAD DATA
    11,'1 ',0, 902,9999,   161.256,  -999.000,     0.000,     0.000,     0.000,     0.000,9999,0,0
    26,'1 ',1, 902,9999,     0.002,     0.000,     0.000,     0.000,     0.000,     0.000,9999,1,0
    31,'1 ',1, 902,9999,    10.500,     2.077,     0.000,     0.000,     0.000,     0.000,9999,1,0
    41,'1 ',1, 902,9999,     0.001,     0.000,     0.000,     0.000,     0.000,     0.000,9999,0,0
0 / END OF LOAD DATA, BEGIN FIXED SHUNT DATA
0 / END OF FIXED SHUNT DATA, BEGIN GENERATOR DATA
    11,'1 ',    10.504,     2.134,     2.134,     2.134,1.00000,     0,   350.000,   0.00086,   1.00000,   0.00000,   0.00000,1.00000,1,  100.0,   300.000,     0.000,9999,1.0000,   0,0.0000,   0,0.0000,   0,1.0000, 0,1.0000
0 / END OF GENERATOR DATA, BEGIN BRANCH DATA
     12,     31,'1 ',   0.010101,   0.002009,   0.000000,    233.20,    233.20,      0.00,     0.00000,     0.00000,     0.00000,     0.00000,1,1,   0.59,9999,1.0000
     13,     12,'1 ',   0.000000,   0.001000,   0.000000,    233.20,    233.20,      0.00,     0.00000,     0.00000,     0.00000,     0.00000,1,2,   0.04,9999,1.0000
     21,     43,'1 ',   0.053719,   0.092975,   0.000000,     28.39,      0.00,      0.00,     0.00000,     0.00000,     0.00000,     0.00000,1,1,   0.50,9999,1.0000
     21,     23,'P1',   0.003306,   0.007025,   0.000000,     22.48,      0.00,      0.00,     0.00000,     0.00000,     0.00000,     0.00000,1,1,   0.02,9999,1.0000
     21,     22,'1 ',   0.015289,   0.005785,   0.000000,     10.48,      0.00,      0.00,     0.00000,     0.00000,     0.00000,     0.00000,1,1,   0.03,9999,1.0000
     22,     24,'1 ',   0.003926,   0.001446,   0.000000,     10.48,      0.00,      0.00,     0.00000,     0.00000,     0.00000,     0.00000,1,1,   0.01,9999,1.0000
     23,     21,'1 ',   0.003306,   0.007025,   0.000000,     22.48,      0.00,      0.00,     0.00000,     0.00000,     0.00000,     0.00000,1,2,   0.02,9999,1.0000
     27,     26,'1 ', 472.589844,  32.136112,   0.000000,      0.00,      0.00,      0.00,     0.00000,     0.00000,     0.00000,     0.00000,1,2,   0.02,9999,1.0000
     31,     51,'1 ',   0.111915,   0.604339,   0.000000,    233.20,    233.20,      0.00,     0.00000,     0.00000,     0.00000,     0.00000,1,1,  27.07,9999,1.0000
     42,     41,'1 ',   0.000000,   0.001000,   0.000000,      0.00,      0.00,      0.00,     0.00000,     0.00000,     0.00000,     0.00000,1,2,   0.00,9999,1.0000
     44,     43,'1 ',   0.006405,   0.001446,   0.000000,     10.48,      0.00,      0.00,     0.00000,     0.00000,     0.00000,     0.00000,1,2,   0.00,9999,1.0000
     52,     51,'1 ',   0.018365,   0.061983,   0.000000,    166.21,    166.21,      0.00,     0.00000,     0.00000,     0.00000,     0.00000,1,2,   2.68,9999,1.0000
     52,     25,'1 ',   0.000918,   0.005395,   0.000000,    142.44,    142.44,      0.00,     0.00000,     0.00000,     0.00000,     0.00000,1,2,   0.86,9999,1.0000
0 / END OF BRANCH DATA, BEGIN TRANSFORMER DATA
    13,    11,     0,'1 ',1,1,1,   0.00000E+00,   0.00000E+00,2,'ARENDAL T1  ',1,9999,1.0000,   0,1.0000,   0,1.0000,   0,1.0000,'Yy0         '
   0.00000E+00,   0.49671E+00,  100.00
  1.02273, 132.000,   0.000,    62.87,    62.87,     0.00, 0,      0,   1.12500,   0.92045,   1.10000,   0.90000,  33, 0, 0.00000, 0.00000,  0.000
  1.00000, 420.000
    23,    25,     0,'1 ',1,1,1,   0.00000E+00,   0.00000E+00,2,'ENGENE T1   ',1,9999,1.0000,   0,1.0000,   0,1.0000,   0,1.0000,'Yy0         '
   0.13602E+00,   0.47222E+01,  100.00
  1.00625,  22.000,   0.000,    25.00,    62.87,     0.00, 0,      0,   1.10000,   0.90000,   1.10000,   0.90000,  33, 0, 0.00000, 0.00000,  0.000
  1.00000, 132.000
    27,    22,     0,'1 ',1,1,1,   0.00000E+00,   0.00000E+00,2,'ENGENE NT1  ',1,9999,1.0000,   0,1.0000,   0,1.0000,   0,1.0000,'Yy0         '
   0.31405E+01,   0.15744E+02,    3.10
  1.00000,   0.230,   0.000,     3.16,     0.00,     0.00, 0,      0,   1.10000,   0.90000,   1.10000,   0.90000,  33, 0, 0.00000, 0.00000,  0.000
  1.00000,  22.000
    42,    44,     0,'1 ',1,1,1,   0.00000E+00,   0.00000E+00,2,'NEDENES T1  ',1,9999,1.0000,   0,1.0000,   0,1.0000,   0,1.0000,'Yy0         '
   0.10498E+02,   0.73244E+02,  100.00
  1.00000,   0.400,   0.000,    10.48,     0.00,     0.00, 1,    -41,   1.10000,   0.90000,  56.83331,  53.16668,   7, 0, 0.00000, 0.00000,  0.000
  1.00000,  22.000
0 / END OF TRANSFORMER DATA, BEGIN AREA DATA
 900,     0,     0.000,     0.100,'FI1 SGR     '
 901,     0,     0.000,     0.100,'NO1 SGR     '
 902,     0,     0.000,     0.100,'NO2 SGR     '
 903,     0,     0.000,     0.100,'NO3 SGR     '
 904,     0,     0.000,     0.100,'NO4 SGR     '
 905,     0,     0.000,     0.100,'NO5 SGR     '
 906,     0,     0.000,     0.100,'SE1 SGR     '
 907,     0,     0.000,     0.100,'SE2 SGR     '
 908,     0,     0.000,     0.100,'SE3 SGR     '
 909,     0,     0.000,     0.100,'SE4 SGR     '
0 / END OF AREA DATA, BEGIN TWO-TERMINAL DC LINE DATA
0 / END OF TWO-TERMINAL DC LINE DATA, BEGIN VSC DC DATA
0 / END OF VSC DC DATA, BEGIN IMPEDANCE CORRECTION DATA
0 / END OF IMPEDANCE CORRECTION DATA, BEGIN MULTI-TERMINAL DC DATA
0 / END OF MULTI-TERMINAL DC DATA, BEGIN MULTI-SECTION LINE DATA
0 / END OF MULTI-SECTION LINE DATA, BEGIN ZONE DATA
9999,'DEF_ZONE    '
0 / END OF ZONE DATA, BEGIN INTER-AREA TRANSFER DATA
0 / END OF INTER-AREA TRANSFER DATA, BEGIN OWNER DATA
9999,'DEF_OWNER   '
0 / END OF OWNER DATA, BEGIN FACTS DEVICE DATA
0 / END OF FACTS DEVICE DATA, BEGIN SWITCHED SHUNT DATA
0 / END OF SWITCHED SHUNT DATA, BEGIN GNE DATA
0 / END OF GNE DATA, BEGIN INDUCTION MACHINE DATA
0 / END OF INDUCTION MACHINE DATA
Q
